 .Wgn file Subbasin: 1 STATION NAME:WY125X805 02/05/2024 12:00:00 AM ArcSWAT 2012.10_7.23
  LATITUDE =  12.50 LONGITUDE =  80.50
  ELEV [m] =  24.50
  RAIN_YRS =  83.00
 29.65 31.65 34.08 36.06 38.05 37.23 35.58 34.78 34.29 32.22 30.00 28.99
 20.02 21.08 22.96 25.75 27.06 26.71 25.69 25.20 24.81 23.91 22.42 20.90
  1.03  1.30  1.33  1.47  2.07  1.78  1.69  1.61  1.57  1.88  1.59  1.15
  1.53  1.70  1.75  1.14  1.10  1.00  1.01  0.88  0.78  0.89  1.28  1.53
  20.9  10.8   3.5  13.7  43.2  61.2 102.5 144.6 126.7 253.9 317.8 138.6
  4.29  3.95  1.23  3.13  8.37  7.81  7.69  9.19  9.64 19.53 24.00 13.65
 10.97 16.62 14.08 11.20 10.98 14.31  4.81  3.65  4.84  5.10  4.36  5.12
  0.06  0.02  0.02  0.04  0.09  0.28  0.38  0.44  0.37  0.31  0.21  0.13
  0.47  0.46  0.27  0.37  0.43  0.53  0.63  0.67  0.61  0.75  0.80  0.71
  3.37  1.09  0.86  2.04  4.07 11.37 16.33 18.14 15.16 17.70 16.12  9.75
 25.40 25.40 25.40 25.40 25.40 25.40 25.40 25.40 25.40 25.40 25.40 25.40
 24.48 26.18 25.12 22.02 17.70 13.17 12.42 14.47 17.28 18.92 19.36 20.46
 19.11 19.74 21.36 23.90 24.25 23.03 22.75 22.66 23.68 23.30 21.13 19.96
  2.17  2.00  2.00  2.83  3.00  3.33  3.00  3.00  2.00  2.00  2.00  2.83
