 .Sol file Watershed HRU:1 Subbasin:1 HRU:1 Luse:URMD Soil: Habitation Slope: 0-9999 02/05/2024 12:00:00 AM ArcSWAT 2012.10_7.23
 Soil Name: Habitation
 Soil Hydrologic Group: D
 Maximum rooting depth(mm) :  1500.00
 Porosity fraction from which anions are excluded: 0.500
 Crack volume potential of soil: 0.500
 Texture 1                : L
 Depth                [mm]:      1500.00
 Bulk Density Moist [g/cc]:        1.54
 Ave. AW Incl. Rock Frag  :        0.13
 Ksat. (est.)      [mm/hr]:        13.5
 Organic Carbon [weight %]:        1.0
 Clay           [weight %]:        18.0
 Silt           [weight %]:        38.0
 Sand           [weight %]:        44.00
 Rock Fragments   [vol. %]:        0.00
 Soil Albedo (Moist)      :        0.30
 Erosion K                :        0.16
 Salinity (EC, Form 5)    :        1.00
 Soil pH                  :        0.00
 Soil CACO3               :        0.00
                              
