Watershed atmospheric deposition file      .atm file 02/05/2024 12:00:00 AM ArcSWAT 2012.10_7.23




             0.000     0.000     0.000     0.000
